# ----------------------------------------------------
# OPTIMISATION DU PROTOTYPE 1 : BODIPY de base
# ----------------------------------------------------
! OPT GFN2-xTB

# Définition des coordonnées du BODIPY de base

*xyz 0 1 Bod_xtb_opt.xyz

   P          -6.36186826501938     10.81952313594482      1.43130376515350
  C          -7.72251428724534     13.98015905274315      4.44430994853092
  C          -7.57049641152292     14.29962959090705      3.10389550967823
  C          -7.18961985796610     13.32430166085772      2.20152623255831
  C          -6.97745598402598     12.01860999557247      2.64107416758334
  C          -7.47805986392518     12.68903324027277      4.88559250407851
  C          -7.09505224252417     11.70627917576567      3.99015366812287
  C          -8.68472882578875     11.44988170035440     -0.07023703125136
  C          -9.48879223858486     11.29760645597458     -1.18586631268205
  C          -9.06394368660150     10.52488854449572     -2.25436846514971
  C          -7.83231351426904      9.88692267919577     -2.20675910035593
  C          -7.02655566323920     10.02787873107737     -1.09486887148291
  C          -7.43862864091179     10.83279765125778     -0.03185428484676
  C          -3.30342796711783     12.70715567589575     -0.51992119559294
  C          -4.53591687479317     12.12993293781207     -0.26459259210255
  C          -4.76490709049534     11.52725110366957      0.96516696339850
  C          -2.31328694821337     12.69257619508257      0.44833102857400
  C          -2.55063681699616     12.10593572809602      1.68290640636504
  C          -3.77746495869905     11.52965311085835      1.94753573622499
  H          -8.61245673720612      6.32890563012751      4.55113690468356
  H          -8.02200745784968     14.74269451457016      5.14741331430136
  H          -7.74461088693730     15.30968997662535      2.76378677686830
  H          -7.58274319532524     12.44588572143178      5.93190432284583
  H          -6.90016292448092     10.70001824326144      4.32984031851366
  H          -7.05469137567540     13.56596745673200      1.15491911715567
  H          -5.30965579845840     12.13570784166906     -1.01988615644896
  H          -3.11693982707488     13.16849749378768     -1.47831293816865
  H          -1.35309335294282     13.14065287029224      0.24161682332689
  H          -1.77825296779170     12.09811496658433      2.43664358084207
  H          -3.97695006672556     11.05944218951819      2.90079093221696
  H          -6.07400316983589      9.51739878006467     -1.03138360873395
  H          -7.50816821723283      9.27296014684686     -3.03351984358856
  H          -9.69723010827299     10.40897265188854     -3.12071956342433
  H         -10.45404231070492     11.78067121147182     -1.21838228014544
  H          -9.01935186466333     12.05106720043155      0.76361186186338
  C          -6.18777441160687      9.21379533032335      2.11646969018512
  C          -7.32601606290350      8.67747025410640      2.78182018876210
  C          -8.64683458708542      9.13854027670321      2.85308789129119
  C          -9.35753790934363      8.20394403626816      3.60059709204205
  C          -8.45887139576589      7.21503670539113      3.96806400632036
  C          -5.06379222090366      8.37525649551363      1.88368537215040
  C          -3.97809602251742      8.46242099051413      1.00112971719806
  C          -3.21781006645527      7.31178062214623      1.18249723978819
  C          -3.84647988857793      6.56315526212678      2.16393854055825
  N          -7.24276692233802      7.49788315432007      3.46562856506143
  N          -4.95947160260727      7.19659148133849      2.57314809910542
  B          -5.91146933252403      6.76179736079281      3.70607242707368
  F          -5.38286234032855      7.16120047605757      4.93151853396412
  F          -6.08992742573910      5.39713121839260      3.69773732167687
  H          -2.31789138816963      7.04808167570224      0.66197770748925
  H          -3.57209371594556      5.61863729433910      2.58996920218531
  H          -3.79006880758986      9.24692512061605      0.29256499890537
  H          -9.02913706345527     10.02576639441967      2.38064074104048
  H         -10.40110215202595      8.23461536819160      3.84618656509054
*
