54
Coordinates from ORCA-job TPP_Opt E -87.684718169800
  P      -6.361868     10.819523      1.431304
  C      -7.722514     13.980159      4.444310
  C      -7.570496     14.299630      3.103896
  C      -7.189620     13.324302      2.201526
  C      -6.977456     12.018610      2.641074
  C      -7.478060     12.689033      4.885593
  C      -7.095052     11.706279      3.990154
  C      -8.684729     11.449882     -0.070237
  C      -9.488792     11.297606     -1.185866
  C      -9.063944     10.524889     -2.254368
  C      -7.832314      9.886923     -2.206759
  C      -7.026556     10.027879     -1.094869
  C      -7.438629     10.832798     -0.031854
  C      -3.303428     12.707156     -0.519921
  C      -4.535917     12.129933     -0.264593
  C      -4.764907     11.527251      0.965167
  C      -2.313287     12.692576      0.448331
  C      -2.550637     12.105936      1.682906
  C      -3.777465     11.529653      1.947536
  H      -8.612457      6.328906      4.551137
  H      -8.022007     14.742695      5.147413
  H      -7.744611     15.309690      2.763787
  H      -7.582743     12.445886      5.931904
  H      -6.900163     10.700018      4.329840
  H      -7.054691     13.565967      1.154919
  H      -5.309656     12.135708     -1.019886
  H      -3.116940     13.168497     -1.478313
  H      -1.353093     13.140653      0.241617
  H      -1.778253     12.098115      2.436644
  H      -3.976950     11.059442      2.900791
  H      -6.074003      9.517399     -1.031384
  H      -7.508168      9.272960     -3.033520
  H      -9.697230     10.408973     -3.120720
  H     -10.454042     11.780671     -1.218382
  H      -9.019352     12.051067      0.763612
  C      -6.187774      9.213795      2.116470
  C      -7.326016      8.677470      2.781820
  C      -8.646835      9.138540      2.853088
  C      -9.357538      8.203944      3.600597
  C      -8.458871      7.215037      3.968064
  C      -5.063792      8.375256      1.883685
  C      -3.978096      8.462421      1.001130
  C      -3.217810      7.311781      1.182497
  C      -3.846480      6.563155      2.163939
  N      -7.242767      7.497883      3.465629
  N      -4.959472      7.196591      2.573148
  B      -5.911469      6.761797      3.706072
  F      -5.382862      7.161200      4.931519
  F      -6.089927      5.397131      3.697737
  H      -2.317891      7.048082      0.661978
  H      -3.572094      5.618637      2.589969
  H      -3.790069      9.246925      0.292565
  H      -9.029137     10.025766      2.380641
  H     -10.401102      8.234615      3.846187
54
Coordinates from ORCA-job TPP_Opt E -87.684719166340
  P      -6.362013     10.819443      1.431838
  C      -7.722965     13.981494      4.443176
  C      -7.570400     14.300353      3.102688
  C      -7.189176     13.324646      2.200875
  C      -6.977746     12.019046      2.641031
  C      -7.479312     12.690425      4.885032
  C      -7.096336     11.707185      3.990112
  C      -8.684830     11.449100     -0.069734
  C      -9.488672     11.296850     -1.185537
  C      -9.063034     10.525164     -2.254469
  C      -7.830887      9.888222     -2.207274
  C      -7.025352     10.029090     -1.095204
  C      -7.438410     10.832696     -0.031589
  C      -3.304082     12.707562     -0.519636
  C      -4.536556     12.130410     -0.264030
  C      -4.765124     11.527125      0.965504
  C      -2.313383     12.691993      0.448039
  C      -2.550337     12.104795      1.682445
  C      -3.777170     11.528677      1.947372
  H      -8.612256      6.327076      4.550330
  H      -8.022995     14.744254      5.145802
  H      -7.744005     15.310341      2.762096
  H      -7.584692     12.447651      5.931359
  H      -6.901853     10.701027      4.330291
  H      -7.053808     13.565772      1.154211
  H      -5.310677     12.136702     -1.018947
  H      -3.117809     13.169130     -1.477958
  H      -1.353094     13.139667      0.240915
  H      -1.777374     12.096036      2.435599
  H      -3.976336     11.057806      2.900374
  H      -6.072339      9.519435     -1.032071
  H      -7.506168      9.275113     -3.034438
  H      -9.696143     10.409367     -3.120980
  H     -10.454254     11.779241     -1.217991
  H      -9.020029     12.049507      0.764428
  C      -6.187907      9.213847      2.117359
  C      -7.325774      8.677584      2.783417
  C      -8.646659      9.138521      2.855392
  C      -9.357179      8.203539      3.602516
  C      -8.458553      7.214009      3.968505
  C      -5.064001      8.375268      1.884062
  C      -3.978692      8.462525      1.001041
  C      -3.218008      7.312130      1.182184
  C      -3.846585      6.562983      2.163268
  N      -7.242483      7.497559      3.466509
  N      -4.959324      7.196390      2.573218
  B      -5.911328      6.760710      3.705645
  F      -5.382344      7.158465      4.931482
  F      -6.090597      5.396159      3.695919
  H      -2.318147      7.048697      0.661434
  H      -3.572240      5.618138      2.588606
  H      -3.790760      9.247512      0.293004
  H      -9.029163     10.026170      2.383930
  H     -10.400675      8.234081      3.848375
