! xtb2 Opt

%maxcore 10000          # Alloue 10000 Mo de RAM pour le calcul

* xyz 0 1               # Début des coordonnées : charge 0, multiplicité 1 (singulet)
P     -2.371278    8.387714    2.801291
C     -3.476622   12.950418    3.984137
C     -3.207668   12.548951    2.537170
C     -2.327304   11.306785    2.452149
C     -2.813123   10.144572    3.342494
C     -4.174190   11.808054    4.721633
C     -3.330483   10.534361    4.737879
C     -5.168593    9.241006    1.918905
C     -6.607737    9.225142    2.449351
C     -7.219164    7.827485    2.348563
C     -6.303854    6.770556    2.964084
C     -4.887099    6.884999    2.396813
C     -4.282290    8.252587    2.730767
C      1.422031   10.110570    3.795866
C      0.360115    9.431197    2.936725
C     -0.891627    9.078113    3.752146
C      1.845234    9.204209    4.955039
C      0.693094    8.588905    5.765026
C     -0.715819    8.920678    5.275260
H     -3.901119    2.627657    3.165558
H     -4.121935   13.853445    3.996460
H     -2.726762   13.380449    1.980628
H     -4.401787   12.112774    5.764000
H     -3.909455    9.708785    5.200322
H     -2.257221   10.995030    1.388578
H      0.119562   10.045121    2.046170
H      2.305567   10.410153    3.194829
H      2.505654    8.397705    4.569967
H      0.823787    7.489290    5.852215
H     -1.527245    8.393022    5.815048
H     -4.803719    6.603699    1.325767
H     -6.711695    5.749132    2.821923
H     -8.214493    7.807743    2.840418
H     -7.247348    9.940915    1.891402
H     -4.878601   10.304823    1.886919
C     -1.845701    6.676537    3.480414
C     -2.798343    5.504050    3.705291
C     -3.467978    5.337922    5.049272
C     -4.328122    4.149371    4.692410
C     -3.375488    3.286809    3.884305
C     -0.382006    6.203629    3.535389
C      0.572700    6.383189    2.367255
C      1.800264    5.622166    2.837849
C      1.315251    4.800724    4.023315
N     -2.416743    4.171137    3.226462
N     -0.132508    4.897829    4.139914
B     -0.940801    3.739741    3.482072
F     -0.816346    2.565076    4.339791
F     -0.386158    3.367656    2.185287
H      2.577526    6.315708    3.218901
H      1.814301    3.853984    4.306827
H      0.162380    5.882896    1.466546
H     -4.077202    6.216187    5.339679
H     -4.795392    3.625399    5.551105
*
