21
Coordinates from ORCA-job Iodo_opt E -46.133078687480
  C          -4.76656377204189      2.80000214614129     -0.14951372113028
  C          -2.24493960568262      3.02565474163532     -0.37504058158691
  C           0.29527285223500      2.86654670799072     -0.03280594156606
  C          -5.56196275119743      1.70618313498673      0.11801419625387
  C           1.06972268530737      1.76214443297082      0.25509526324264
  C           0.22620118401038      0.64002507879534      0.26069667691470
  C          -4.72251772587499      0.59377329615881      0.25374707367402
  N          -3.46382261074421      0.96901348108627      0.08220067236209
  C          -1.02724495093670      2.39122510087360     -0.16763140292098
  F          -2.23431120460124     -1.10377262819632      0.20320775640225
  F          -2.25462903836712      0.05508003045043     -1.74406575800676
  B          -2.23370609324827      0.13659800776206     -0.35753833816371
  I          -7.62912093440281      1.66029797684312      0.37220645384577
  I           3.11888475823806      1.69580202009106      0.61808260221518
  C          -3.44168806451002      2.32341488694095     -0.21118203822654
  N          -1.02207539463756      1.01925205876230      0.02125835659898
  H          -5.07850920066194      3.81526547759333     -0.29744838461560
  H          -2.27155049267979      4.08799306754605     -0.56083912006256
  H           0.59158173696204      3.89041892850129     -0.12343197016184
  H           0.48635371342254     -0.38723777732940      0.43033878360157
  H          -4.96830909058878     -0.43311816960376      0.44943342133017
