21
Coordinates from ORCA-job Iodo_Opt E -46.138650144870
  C          -4.78851204532098      2.85037935893172     -0.09053703033662
  C          -2.25406821747303      3.06800866516372     -0.04780796090869
  C           0.28310688510058      2.88375331834520     -0.00408807741713
  C          -5.59008972483868      1.73120208699930     -0.10282027128216
  C           1.09918925365955      1.77516892988470      0.01176308285483
  C           0.27689346413377      0.63721509454428     -0.00053232667025
  C          -4.75305586309389      0.60409910485926     -0.08762263182635
  N          -3.48842238289414      0.99617828815899     -0.06685093301115
  C          -1.04366593497713      2.39326771278956     -0.02610582288901
  F          -2.24911873450688     -0.69866578839060      1.08709642402236
  F          -2.20950922836899     -0.70193424706265     -1.17172078069402
  B          -2.23439621261929      0.07457468857185     -0.04352955388794
  I          -7.67249395201707      1.66689986450304     -0.13816767955527
  I           3.18224204419798      1.73835628554635      0.04772851409868
  C          -3.45547419533275      2.37722571424346     -0.06764416879479
  N          -0.99272653467098      1.01273350963711     -0.02291889852136
  H          -5.09490114964584      3.87737869709972     -0.09679784320210
  H          -2.26140273232877      4.14727525886095     -0.04920856604404
  H           0.57610859481139      3.91466700858242     -0.00082465854379
  H           0.55916729009718     -0.39824749275028      0.00622514502129
  H          -5.02180462391200     -0.43497405851808     -0.09085196241252
