! xtb2 Opt

%maxcore 10000          # Alloue 10000 Mo de RAM pour le calcul

* xyz 0 1               # Début des coordonnées : charge 0, multiplicité 1 (singulet)
C     -4.088304    2.932418   -0.071998
C     -2.365839    2.884032   -0.144285
C     -0.299369    2.986564   -0.082554
C     -4.861814    1.743996   -0.064168
C      0.637427    2.038270   -0.089465
C     -0.075351    0.759885    0.023251
C     -4.565527    0.399465   -0.039846
N     -3.279763    0.847718   -0.119754
C     -1.351733    2.019172   -0.122426
F     -2.999342   -0.712475   -0.046908
F     -1.440980   -0.809848   -0.367432
B     -2.291555    0.213657   -0.208175
I     -6.869077    1.848192    0.323272
I      2.616939    1.958459    0.329749
C     -3.278668    1.822856   -0.169534
N     -1.334585    0.984087   -0.026479
H     -4.794206    3.742867    0.034152
H     -2.275101    3.963002   -0.122875
H      0.445782    3.768565   -0.004415
H      0.872652    0.201110    0.058698
H     -5.534520   -0.077430   -0.044024
*
