54
Coordinates from ORCA-job TPP-BODIPY_Opt E -87.684716085420
  P          -1.63293139666261      1.31550470590674      3.32578317965198
  C          -2.97595875977747      4.36415131219875      6.45946563045951
  C          -2.84103456216204      4.72927887437814      5.12891091858126
  C          -2.46504874333983      3.78693792215530      4.19026330174579
  C          -2.24086180045339      2.46842746507515      4.58340597544946
  C          -2.72052000135064      3.06024112781099      6.85456218092231
  C          -2.34234078302650      2.11033178549889      5.92234037069495
  C          -3.98548018901880      1.97709185603985      1.88616241406152
  C          -4.80830149654253      1.85564603911311      0.78037747814083
  C          -4.39684686253550      1.12248155517536     -0.32080565065160
  C          -3.15978336609566      0.49335813054110     -0.31672120475963
  C          -2.33556335439138      0.60322424239258      0.78508300191823
  C          -2.73461741109464      1.36865001325558      1.88161851088209
  C           1.37517247631989      3.29152524660606      1.38437149758091
  C           0.15055660625841      2.70004180318930      1.64415886710339
  C          -0.05053002225991      2.05311203854725      2.85615612080241
  C           2.38546908300898      3.24620548781663      2.33071599115041
  C           2.17500256618026      2.61684172256777      3.54906534088085
  C           0.95614971679661      2.02596598037203      3.81829440989435
  H          -3.79230435602705     -3.30558412957116      6.31964044846353
  H          -3.27155555744420      5.10084281339196      7.19109459446017
  H          -3.02406597545058      5.74914586030305      4.82465145508386
  H          -2.81281907517420      2.78151427540476      7.89310553030562
  H          -2.13767914948378      1.09437889700779      6.22546899799810
  H          -2.34366679701280      4.06355813904714      3.15064504208140
  H          -0.63889643230699      2.72802862188094      0.90571762445005
  H           1.54062747629346      3.78652973682399      0.43896408298024
  H           3.34048797149066      3.70324794690621      2.11941071117522
  H           2.96313413451145      2.58646485702479      4.28576369814478
  H           0.77737081340376      1.52201804587262      4.75827196635104
  H          -1.37827990951144      0.09858622940855      0.81512918513646
  H          -2.84544675078368     -0.08933573880406     -1.16931035801479
  H          -5.04487891003003      1.03119002389120     -1.17920305727969
  H          -5.77780414030535      2.33105263207930      0.78093827695697
  H          -4.30947688832382      2.54775473687088      2.74524816535008
  C          -1.43363290987687     -0.31027575055524      3.95468756520138
  C          -2.55603848106066     -0.88092070340944      4.61820714626444
  C          -3.88138630623202     -0.43924396842344      4.72141820814887
  C          -4.57174971290620     -1.40815596721425      5.44395120169641
  C          -3.65684099430769     -2.39828938706580      5.76545557706935
  C          -0.30463039193972     -1.12878823178925      3.67695689064968
  C           0.76364602990648     -1.00322654202966      2.77784163962208
  C           1.53846196477588     -2.15092142426299      2.90920217594641
  C           0.93491083320642     -2.93649246958695      3.87750624385787
  N          -2.45036779682646     -2.08224046672297      5.25983039872910
  N          -0.17597128632854     -2.32739411676931      4.32706598523210
  B          -1.10818249046371     -2.81159903340160      5.45595256362747
  F          -0.56669664966120     -2.45036623723536      6.68774607364900
  F          -1.27330391356065     -4.17709993674840      5.40208640736279
  H           2.43033216422602     -2.38972949536483      2.36355762266341
  H           1.22530470754448     -3.89200947813622      4.26666378946333
  H           0.93148141099854     -0.19430994135058      2.09206728680518
  H          -4.28060267863832      0.45918329095572      4.28560965635033
  H          -5.61249567825443     -1.39897425176799      5.70269131230871
