! xtb2 Opt

%maxcore 10000          # Alloue 10000 Mo de RAM pour le calcul

* xyz 0 1               # Début des coordonnées : charge 0, multiplicité 1 (singulet)
C     -1.683354    4.843392   -0.000151
C     -2.837546    4.051034   -0.000321
C     -4.104586    4.590259   -0.000286
C     -4.846355    3.381748   -0.000255
C     -4.089204    2.231599   -0.000411
C     -0.518539    4.195236   -0.000168
C      0.764864    4.836725   -0.000539
C      1.602637    3.799891   -0.000738
C      0.859743    2.715450   -0.000449
N     -2.825390    2.744704   -0.000139
N     -0.410313    2.874704   -0.000415
B     -1.717250    2.221544   -0.000359
F     -2.675518    1.142797   -0.000232
F     -0.671102    1.274082   -0.000413
H      2.628991    3.914534   -0.001058
H      1.304247    1.749967   -0.000267
H      1.061930    5.824103   -0.000648
H     -4.430088    5.610503   -0.000283
H     -5.916254    3.364219   -0.000120
H     -4.406877    1.209818   -0.000675
H     -1.707943    5.906710   -0.000015

*
