21
Coordinates from ORCA-job Bod_xtb_opt E -39.511355428910
  C          -1.73967631878804      4.87181925127548     -0.32253605844571
  C          -2.93292785102963      4.17488312527892     -0.18048013821415
  C          -4.29317197769508      4.56625717032715     -0.06848559316602
  C          -4.99907902730088      3.44960515725439      0.31982252894957
  C          -4.06524515416144      2.40349726754923      0.42460933745098
  C          -0.51969338901086      4.22586102397995     -0.09097881257408
  C           0.77334737127927      4.71860234328552     -0.29780207657932
  C           1.66953240462842      3.70293975745927      0.03632098696355
  C           0.90089529120258      2.62561262507251      0.45685902018100
  N          -2.85906406657773      2.81463968332016      0.08146905482188
  N          -0.41672765766357      2.87682423490870      0.39231058760688
  B          -1.52131411363073      2.02795025477158     -0.20456310092442
  F          -1.70350503462524      0.77542645227539      0.38958832842934
  F          -1.23949097823637      1.82886851038091     -1.52850592838567
  H           2.73717436193573      3.77251822460755      0.00056155608712
  H           1.24898518500996      1.70457788816432      0.89211231884543
  H           1.02973828096841      5.69071579901423     -0.67464956635901
  H          -4.65845055851880      5.55961402428944     -0.23828838163100
  H          -6.05171025699935      3.40120376157825      0.51066526002464
  H          -4.24389975039540      1.37590766712682      0.68563228812426
  H          -1.73362376039126      5.91569477808028     -0.59160361120528
