54
Coordinates from ORCA-job TPP_Opt E -87.684719166340
  P          -6.36201325938474     10.81944324625291      1.43183751546413
  C          -7.72296493161171     13.98149405577235      4.44317631444015
  C          -7.57039964240860     14.30035346026163      3.10268763556856
  C          -7.18917618025530     13.32464560183513      2.20087509683164
  C          -6.97774603400846     12.01904603994379      2.64103057049863
  C          -7.47931193007912     12.69042548564126      4.88503214430355
  C          -7.09633624532860     11.70718527766729      3.99011236459936
  C          -8.68482998630078     11.44910006325113     -0.06973448124315
  C          -9.48867181943998     11.29685018973497     -1.18553685839825
  C          -9.06303447697408     10.52516406255782     -2.25446869518660
  C          -7.83088720024425      9.88822247427342     -2.20727441111470
  C          -7.02535188942770     10.02908964276454     -1.09520420302795
  C          -7.43840952039136     10.83269629138426     -0.03158925281462
  C          -3.30408195631569     12.70756190931074     -0.51963572931642
  C          -4.53655640916979     12.13041000655005     -0.26403026195573
  C          -4.76512415751208     11.52712484675986      0.96550373682737
  C          -2.31338301448312     12.69199338680664      0.44803904452757
  C          -2.55033669578237     12.10479547157851      1.68244515045481
  C          -3.77717004466201     11.52867742505412      1.94737168293869
  H          -8.61225610863401      6.32707589742698      4.55032968429009
  H          -8.02299528269082     14.74425416115291      5.14580202161709
  H          -7.74400491012559     15.31034140602090      2.76209585232326
  H          -7.58469230261214     12.44765089756546      5.93135917644327
  H          -6.90185276703815     10.70102682873272      4.33029115474733
  H          -7.05380842625451     13.56577166767382      1.15421119348709
  H          -5.31067683066440     12.13670153602265     -1.01894681615964
  H          -3.11780871862586     13.16912951088431     -1.47795848030787
  H          -1.35309373434341     13.13966737173374      0.24091506296871
  H          -1.77737400042042     12.09603567233281      2.43559877557949
  H          -3.97633627206438     11.05780636183815      2.90037395228652
  H          -6.07233897959412      9.51943527139711     -1.03207103386846
  H          -7.50616822675541      9.27511289291897     -3.03443787170071
  H          -9.69614293493743     10.40936713540134     -3.12097951239640
  H         -10.45425409862686     11.77924126800327     -1.21799131093333
  H          -9.02002868991937     12.04950668987725      0.76442762279427
  C          -6.18790691555479      9.21384749621977      2.11735870083645
  C          -7.32577394534869      8.67758418392636      2.78341707253936
  C          -8.64665864428287      9.13852129315803      2.85539204779821
  C          -9.35717935422514      8.20353868570552      3.60251612799234
  C          -8.45855264531303      7.21400913946765      3.96850460604481
  C          -5.06400079707687      8.37526806962011      1.88406209800751
  C          -3.97869213107547      8.46252531107696      1.00104142264414
  C          -3.21800794390485      7.31212978632108      1.18218350884754
  C          -3.84658459406866      6.56298271765976      2.16326767691644
  N          -7.24248273983155      7.49755933566969      3.46650924869375
  N          -4.95932410015759      7.19639027527157      2.57321790474200
  B          -5.91132772536814      6.76071030092887      3.70564467025439
  F          -5.38234415949121      7.15846539361053      4.93148235036106
  F          -6.09059650807997      5.39615873894524      3.69591869829622
  H          -2.31814671739093      7.04869703799996      0.66143431205840
  H          -3.57224010689658      5.61813845212894      2.58860589475427
  H          -3.79075975189807      9.24751236780301      0.29300366777322
  H          -9.02916259432063     10.02616968194756      2.38392974214480
  H         -10.40067466362830      8.23408100455658      3.84837495352733
