21
Coordinates from ORCA-job Bodipy_Opt E -39.511355428840
  C      -1.739676      4.871819     -0.322536
  C      -2.932928      4.174883     -0.180480
  C      -4.293172      4.566257     -0.068486
  C      -4.999079      3.449605      0.319823
  C      -4.065245      2.403497      0.424609
  C      -0.519693      4.225861     -0.090979
  C       0.773347      4.718602     -0.297802
  C       1.669532      3.702940      0.036321
  C       0.900895      2.625613      0.456859
  N      -2.859064      2.814640      0.081469
  N      -0.416728      2.876824      0.392311
  B      -1.521314      2.027950     -0.204563
  F      -1.703505      0.775426      0.389588
  F      -1.239491      1.828869     -1.528506
  H       2.737174      3.772518      0.000562
  H       1.248985      1.704578      0.892112
  H       1.029738      5.690716     -0.674650
  H      -4.658451      5.559614     -0.238288
  H      -6.051710      3.401204      0.510665
  H      -4.243900      1.375908      0.685632
  H      -1.733624      5.915695     -0.591604
21
Coordinates from ORCA-job Bodipy_Opt E -39.518194996060
  C      -1.732081      4.855490     -0.342262
  C      -2.920700      4.160796     -0.185837
  C      -4.272113      4.566757     -0.060386
  C      -4.988949      3.454600      0.319468
  C      -4.075960      2.389970      0.396544
  C      -0.511878      4.225968     -0.119109
  C       0.783806      4.735425     -0.289916
  C       1.672084      3.725989      0.049797
  C       0.898379      2.633869      0.424109
  N      -2.861297      2.803053      0.087473
  N      -0.409899      2.898786      0.353986
  B      -1.540979      2.009785     -0.176750
  F      -1.674468      0.786439      0.470672
  F      -1.325844      1.783648     -1.510345
  H       2.741079      3.793492      0.040140
  H       1.234684      1.698719      0.835156
  H       1.036911      5.718725     -0.636303
  H      -4.628674      5.565810     -0.217864
  H      -6.041285      3.412478      0.515772
  H      -4.266435      1.360962      0.640158
  H      -1.734287      5.902258     -0.602444
21
Coordinates from ORCA-job Bodipy_Opt E -39.522877938880
  C      -1.726724      4.849582     -0.345029
  C      -2.909731      4.148622     -0.184967
  C      -4.256974      4.563252     -0.064513
  C      -4.983014      3.454731      0.307543
  C      -4.082965      2.380623      0.387949
  C      -0.501693      4.236880     -0.134423
  C       0.802317      4.755036     -0.276029
  C       1.675179      3.739720      0.055502
  C       0.890379      2.635590      0.390543
  N      -2.862819      2.793512      0.092581
  N      -0.405873      2.925369      0.308208
  B      -1.560588      1.993529     -0.148340
  F      -1.619854      0.805553      0.546322
  F      -1.414578      1.752663     -1.492156
  H       2.745706      3.790833      0.064534
  H       1.208662      1.681827      0.770641
  H       1.054390      5.748588     -0.591784
  H      -4.609795      5.564078     -0.219991
  H      -6.036829      3.411668      0.499850
  H      -4.279440      1.353217      0.628567
  H      -1.743663      5.898148     -0.602947
21
Coordinates from ORCA-job Bodipy_Opt E -39.525389811630
  C      -1.725771      4.851526     -0.347059
  C      -2.903966      4.142144     -0.178195
  C      -4.249917      4.564034     -0.066773
  C      -4.985456      3.458566      0.294157
  C      -4.093699      2.378326      0.379072
  C      -0.493447      4.249681     -0.151085
  C       0.817002      4.774426     -0.259547
  C       1.679986      3.750169      0.059294
  C       0.890261      2.630365      0.350739
  N      -2.865320      2.788130      0.103355
  N      -0.399377      2.937205      0.259752
  B      -1.571593      1.975171     -0.117440
  F      -1.565971      0.829036      0.626909
  F      -1.471238      1.695448     -1.462463
  H       2.751071      3.789261      0.084538
  H       1.198303      1.659010      0.690300
  H       1.067515      5.778642     -0.539764
  H      -4.599600      5.565654     -0.223417
  H      -6.041235      3.413770      0.476665
  H      -4.296335      1.351292      0.613889
  H      -1.759121      5.901163     -0.600868
21
Coordinates from ORCA-job Bodipy_Opt E -39.527461604950
  C      -1.725287      4.860267     -0.336241
  C      -2.896692      4.140684     -0.154442
  C      -4.242885      4.568484     -0.066514
  C      -4.991735      3.463868      0.267633
  C      -4.106218      2.380280      0.363414
  C      -0.485737      4.265071     -0.169596
  C       0.828597      4.794905     -0.240197
  C       1.684676      3.761480      0.057226
  C       0.894210      2.624322      0.293664
  N      -2.866888      2.786291      0.122853
  N      -0.390866      2.939988      0.191427
  B      -1.579181      1.952907     -0.074966
  F      -1.510025      0.872217      0.744151
  F      -1.524973      1.586905     -1.407943
  H       2.755802      3.790979      0.098869
  H       1.197539      1.633550      0.571919
  H       1.075621      5.811712     -0.472636
  H      -4.587924      5.571264     -0.225075
  H      -6.051161      3.415409      0.426132
  H      -4.316551      1.351853      0.585182
  H      -1.778228      5.910583     -0.582800
21
Coordinates from ORCA-job Bodipy_Opt E -39.528731360440
  C      -1.724733      4.871736     -0.315163
  C      -2.891115      4.145506     -0.126816
  C      -4.238881      4.573846     -0.065550
  C      -4.996961      3.466111      0.237008
  C      -4.112203      2.383762      0.343415
  C      -0.482319      4.274594     -0.180784
  C       0.831790      4.806721     -0.226257
  C       1.687917      3.767644      0.046160
  C       0.899302      2.620968      0.242642
  N      -2.865593      2.789830      0.138224
  N      -0.384997      2.933764      0.131397
  B      -1.581116      1.939496     -0.039731
  F      -1.483862      0.922343      0.853207
  F      -1.558220      1.472335     -1.345002
  H       2.758779      3.794717      0.097085
  H       1.205029      1.618375      0.469875
  H       1.075174      5.832385     -0.420867
  H      -4.580262      5.578224     -0.221748
  H      -6.059430      3.413357      0.369940
  H      -4.326552      1.352963      0.551874
  H      -1.789652      5.924341     -0.546852
21
Coordinates from ORCA-job Bodipy_Opt E -39.529625975060
  C      -1.723481      4.884734     -0.286301
  C      -2.887425      4.154496     -0.100691
  C      -4.237656      4.578938     -0.065396
  C      -5.000160      3.464476      0.202242
  C      -4.112433      2.385898      0.317133
  C      -0.481390      4.279895     -0.185600
  C       0.830546      4.813155     -0.214617
  C       1.690880      3.769512      0.027635
  C       0.903906      2.618117      0.189643
  N      -2.862270      2.796999      0.145922
  N      -0.381035      2.924468      0.074161
  B      -1.580207      1.934689     -0.007519
  F      -1.478665      0.986460      0.964869
  F      -1.582786      1.353683     -1.266209
  H       2.761241      3.798288      0.083930
  H       1.214398      1.607848      0.374314
  H       1.071035      5.845253     -0.378245
  H      -4.577158      5.585144     -0.214056
  H      -6.064961      3.406538      0.309575
  H      -4.327048      1.352325      0.513243
  H      -1.793240      5.942102     -0.491975
21
Coordinates from ORCA-job Bodipy_Opt E -39.530054787990
  C      -1.721881      4.894486     -0.259673
  C      -2.886710      4.163169     -0.085752
  C      -4.239312      4.582088     -0.066462
  C      -5.001266      3.460501      0.173423
  C      -4.109994      2.384782      0.290330
  C      -0.481708      4.281577     -0.182308
  C       0.828365      4.815997     -0.204045
  C       1.693377      3.767752      0.006414
  C       0.906721      2.614881      0.145176
  N      -2.859718      2.803571      0.143049
  N      -0.378953      2.918528      0.034294
  B      -1.578378      1.937207      0.018759
  F      -1.484476      1.049618      1.056273
  F      -1.596788      1.263991     -1.189697
  H       2.763450      3.798987      0.060717
  H       1.220175      1.600370      0.302825
  H       1.067732      5.851606     -0.347633
  H      -4.579143      5.589550     -0.205778
  H      -6.067458      3.398252      0.261882
  H      -4.322598      1.349023      0.477024
  H      -1.789343      5.957085     -0.436760
21
Coordinates from ORCA-job Bodipy_Opt E -39.530254385020
  C      -1.720641      4.899973     -0.238342
  C      -2.887894      4.169331     -0.080226
  C      -4.242180      4.583879     -0.067326
  C      -5.001885      3.457187      0.153580
  C      -4.108615      2.382149      0.266985
  C      -0.482303      4.281561     -0.173069
  C       0.827050      4.817391     -0.196641
  C       1.695092      3.765463     -0.012267
  C       0.908913      2.611403      0.113177
  N      -2.859348      2.807308      0.133515
  N      -0.377497      2.916270      0.014265
  B      -1.577067      1.941015      0.039773
  F      -1.491431      1.099415      1.122189
  F      -1.601160      1.206732     -1.128815
  H       2.765245      3.798841      0.034501
  H       1.223519      1.594786      0.255712
  H       1.066340      5.854498     -0.329282
  H      -4.583062      5.592082     -0.198349
  H      -6.068921      3.392448      0.230270
  H      -4.319504      1.344830      0.445465
  H      -1.782558      5.966458     -0.393055
21
Coordinates from ORCA-job Bodipy_Opt E -39.530401559560
  C      -1.719721      4.903603     -0.216627
  C      -2.889865      4.174344     -0.077938
  C      -4.245467      4.585348     -0.067403
  C      -5.002908      3.454553      0.135356
  C      -4.108717      2.378955      0.241776
  C      -0.482966      4.281258     -0.158667
  C       0.826301      4.818755     -0.189651
  C       1.696199      3.763077     -0.033784
  C       0.911231      2.607476      0.084989
  N      -2.860450      2.809251      0.119324
  N      -0.376020      2.915708      0.005619
  B      -1.576280      1.944152      0.063004
  F      -1.498263      1.147714      1.184461
  F      -1.598775      1.158830     -1.068599
  H       2.766784      3.798141     -0.001582
  H       1.226356      1.589457      0.215127
  H       1.065955      5.856780     -0.312958
  H      -4.587381      5.594253     -0.189855
  H      -6.070679      3.388210      0.202155
  H      -4.318705      1.339915      0.409232
  H      -1.774535      5.973239     -0.351921
21
Coordinates from ORCA-job Bodipy_Opt E -39.530511920930
  C      -1.719235      4.906350     -0.193416
  C      -2.891565      4.178011     -0.074391
  C      -4.248032      4.586579     -0.065689
  C      -5.004429      3.452622      0.117590
  C      -4.110120      2.375935      0.215066
  C      -0.483454      4.281744     -0.141222
  C       0.826209      4.819883     -0.185916
  C       1.696383      3.761034     -0.056231
  C       0.913036      2.603777      0.060639
  N      -2.862147      2.809558      0.103910
  N      -0.374871      2.916144      0.006102
  B      -1.576121      1.945631      0.088717
  F      -1.503811      1.194289      1.243375
  F      -1.590806      1.117342     -1.009898
  H       2.767471      3.796691     -0.042659
  H       1.228268      1.584626      0.178731
  H       1.066589      5.858440     -0.301287
  H      -4.590447      5.596346     -0.179297
  H      -6.072811      3.385130      0.175164
  H      -4.320300      1.334728      0.366993
  H      -1.767715      5.978160     -0.314225
21
Coordinates from ORCA-job Bodipy_Opt E -39.530581972020
  C      -1.719177      4.908651     -0.172379
  C      -2.892176      4.179874     -0.067402
  C      -4.248907      4.587486     -0.062004
  C      -5.006088      3.451218      0.100663
  C      -4.112024      2.373756      0.190840
  C      -0.483599      4.283428     -0.125614
  C       0.826498      4.820675     -0.184645
  C       1.695944      3.759319     -0.077661
  C       0.913709      2.601399      0.042893
  N      -2.863424      2.808782      0.092541
  N      -0.374426      2.916966      0.012239
  B      -1.576347      1.945606      0.113715
  F      -1.507793      1.233852      1.292752
  F      -1.580192      1.084537     -0.959078
  H       2.767332      3.793781     -0.083313
  H       1.228728      1.581176      0.149605
  H       1.067609      5.859657     -0.293340
  H      -4.591020      5.598288     -0.167265
  H      -6.074876      3.382681      0.149154
  H      -4.323224      1.330283      0.324948
  H      -1.764454      5.981604     -0.284591
21
Coordinates from ORCA-job Bodipy_Opt E -39.530617092010
  C      -1.719287      4.910611     -0.156255
  C      -2.891731      4.180148     -0.057751
  C      -4.248252      4.587993     -0.058051
  C      -5.007307      3.450358      0.087578
  C      -4.113652      2.372519      0.173459
  C      -0.483439      4.285680     -0.115244
  C       0.826826      4.820787     -0.187136
  C       1.695577      3.758227     -0.092462
  C       0.913399      2.600712      0.032498
  N      -2.863968      2.807638      0.087658
  N      -0.374637      2.917755      0.018670
  B      -1.576537      1.944981      0.132359
  F      -1.510270      1.259942      1.325252
  F      -1.571070      1.063749     -0.924460
  H       2.766990      3.790424     -0.110888
  H       1.228031      1.579557      0.130797
  H       1.068192      5.860021     -0.293048
  H      -4.589515      5.599775     -0.156766
  H      -6.076266      3.380955      0.128550
  H      -4.326049      1.327295      0.292242
  H      -1.764943      5.983891     -0.264943
21
Coordinates from ORCA-job Bodipy_Opt E -39.530629782290
  C      -1.719353      4.911682     -0.148509
  C      -2.890961      4.179548     -0.050242
  C      -4.247088      4.588248     -0.055312
  C      -5.007837      3.450001      0.079813
  C      -4.114655      2.372004      0.165323
  C      -0.483197      4.287276     -0.111283
  C       0.826988      4.820678     -0.188978
  C       1.695683      3.757629     -0.100624
  C       0.912893      2.601155      0.028834
  N      -2.864102      2.806724      0.088059
  N      -0.375010      2.918324      0.022453
  B      -1.576423      1.944703      0.141973
  F      -1.511706      1.270813      1.339892
  F      -1.565955      1.055245     -0.908378
  H       2.766995      3.787729     -0.125186
  H       1.227291      1.579444      0.123338
  H       1.068021      5.860117     -0.294642
  H      -4.587502      5.600695     -0.150146
  H      -6.076857      3.380104      0.115575
  H      -4.327931      1.325956      0.275894
  H      -1.767201      5.984945     -0.255797
21
Coordinates from ORCA-job Bodipy_Opt E -39.530633645610
  C      -1.719306      4.912130     -0.145172
  C      -2.890391      4.178955     -0.045991
  C      -4.246269      4.588309     -0.054497
  C      -5.007874      3.449974      0.076851
  C      -4.115151      2.371724      0.162696
  C      -0.482986      4.288051     -0.110234
  C       0.827084      4.820479     -0.190963
  C       1.695991      3.757456     -0.103017
  C       0.912527      2.601668      0.027851
  N      -2.864154      2.806140      0.089657
  N      -0.375270      2.918737      0.023518
  B      -1.576152      1.944876      0.145080
  F      -1.512370      1.273091      1.343918
  F      -1.564068      1.053566     -0.903803
  H       2.767233      3.786380     -0.128436
  H       1.226835      1.579752      0.121687
  H       1.067646      5.859938     -0.298255
  H      -4.586200      5.601055     -0.147740
  H      -6.076933      3.379941      0.110096
  H      -4.328915      1.325472      0.270562
  H      -1.769184      5.985326     -0.251752
21
Coordinates from ORCA-job Bodipy_Opt E -39.530634782100
  C      -1.719242      4.912199     -0.144205
  C      -2.890126      4.178608     -0.044537
  C      -4.245913      4.588330     -0.054253
  C      -5.007781      3.449974      0.075424
  C      -4.115376      2.371514      0.162018
  C      -0.482850      4.288308     -0.110014
  C       0.827202      4.820486     -0.191108
  C       1.696170      3.757309     -0.104421
  C       0.912359      2.601852      0.027484
  N      -2.864229      2.805819      0.090678
  N      -0.375356      2.919042      0.023728
  B      -1.575884      1.945278      0.146139
  F      -1.512721      1.273506      1.345287
  F      -1.563444      1.053452     -0.902216
  H       2.767364      3.785668     -0.130374
  H       1.226659      1.579912      0.121547
  H       1.067484      5.859954     -0.299201
  H      -4.585669      5.601186     -0.146782
  H      -6.076897      3.379906      0.107079
  H      -4.329361      1.325298      0.269619
  H      -1.770296      5.985416     -0.249833
